17
	Energy:      23.2031609
N         -0.78833       -2.20498       -0.43757
C         -1.82383       -1.42484       -0.04014
C          0.45544       -1.69418       -0.62323
C          0.70859       -0.33300       -0.40654
C         -1.63005       -0.06317        0.18825
C         -0.35703        0.51216        0.00854
C         -0.19142        1.97799        0.26207
H         -2.80342       -1.86246        0.09893
H         -2.47328        0.53845        0.50394
H          1.25563       -2.35021       -0.94048
O         -1.14905        2.64626        0.62060
O          0.99649        2.58947        0.10194
S          2.39017        0.25499       -0.67791
C          2.91644       -0.09718        1.02780
H          3.97255        0.22233        1.14087
H          2.86414       -1.18699        1.23174
H          2.30743        0.48533        1.75028
