15
	Energy:      18.6341646
N          0.07627       -1.57450        0.00000
C         -1.12664       -0.94734       -0.00000
C          1.24264       -0.87904        0.00000
C         -1.19289        0.44529       -0.00001
H         -2.03699       -1.53189        0.00000
C          1.23440        0.53020       -0.00000
H          2.17654       -1.42514        0.00001
C         -0.01139        1.20689       -0.00001
H         -2.16371        0.92466       -0.00001
C         -0.11032        2.69633       -0.00001
O          0.89204        3.39286       -0.00001
O         -1.31887        3.29327       -0.00001
N          2.45429        1.26381        0.00000
N          3.56239        0.69455        0.00000
H          4.42749        1.25240        0.00000
