14
	Energy:      16.2253377
N         -0.40831       -0.16350       -0.03033
C         -1.63196        0.42485       -0.02982
C          0.73346        0.57032        0.02672
C         -1.74367        1.81464        0.03016
H         -2.52250       -0.18769       -0.07612
C         -0.58529        2.61011        0.09033
H         -2.72842        2.26512        0.02954
C          0.67474        1.97102        0.08830
H          1.69045        0.06490        0.02428
C         -0.71082        4.09422        0.15424
O          1.81577        2.69031        0.14469
H          2.68674        2.26800        0.14415
O          0.38345        4.87805        0.21257
O         -1.81424        4.61801        0.15438
