15
	Energy:      20.7937802
N         -0.79073       -1.75965       -0.00039
C         -1.87973       -0.94741       -0.00017
C          0.45751       -1.24344       -0.00052
C          0.63192        0.13710       -0.00086
C         -1.73586        0.44590        0.00016
C         -0.46295        1.01601       -0.00003
C         -0.30986        2.51527       -0.00022
H         -2.86106       -1.38094        0.00011
H         -2.60982        1.07554        0.00018
H          1.32359       -1.90453       -0.00112
O         -1.30074        3.22636        0.00004
O          0.90456        3.10524       -0.00010
C          1.93538        0.61817       -0.00590
C          3.04429        1.02441       -0.01015
H          4.00424        1.40253       -0.01390
