17
	Energy:      20.1339038
N         -0.11604       -1.29445        0.00001
C         -1.27072       -0.58281        0.00001
C          1.09782       -0.68541        0.00000
C         -1.23636        0.81037        0.00001
H         -2.22072       -1.10042        0.00001
C          1.19155        0.72329        0.00000
H          1.98543       -1.30189       -0.00000
C         -0.00195        1.48400        0.00001
H         -2.16968        1.35955        0.00001
C          0.01902        2.97602        0.00001
O          1.18443        3.65204        0.00000
O         -1.02821        3.60473        0.00001
O          2.39662        1.35684       -0.00000
C          3.62901        0.73537       -0.00001
H          4.42355        1.50937       -0.00001
H          3.74583        0.11128       -0.91161
H          3.74584        0.11129        0.91160
