13
	Energy:      17.5783637
N         -2.06472       -1.31028       -0.00187
C         -3.24285       -0.63786        0.00557
C         -0.87423       -0.65763        0.01188
C         -3.25546        0.75652        0.02780
H         -4.17487       -1.18709       -0.00581
C         -2.04432        1.47477        0.04266
H         -4.20812        1.27140        0.03335
C         -0.82882        0.74171        0.03436
H          0.04457       -1.22945        0.00532
C         -2.09207        2.96894        0.06639
O         -0.96580        3.70557        0.08132
O         -3.16919        3.54509        0.07256
Cl         0.76008        1.50329        0.05097
