15
	Energy:      29.4875894
N         -0.61725       -2.06639       -0.01756
C         -1.75981       -1.34735        0.01652
C          0.60018       -1.47255       -0.05118
C          0.73071       -0.05774       -0.05210
C         -1.71284        0.04001        0.01794
C         -0.47828        0.72450       -0.01597
C         -0.54453        2.23046       -0.01104
H         -2.71405       -1.85663        0.04278
H         -2.65020        0.58152        0.04582
H          1.46943       -2.11394       -0.07731
O         -1.63268        2.78548        0.02106
O          0.55313        3.00167       -0.04065
C          2.11203        0.55233       -0.09041
S          3.31371       -0.24306       -0.12627
H          2.26110        1.61187       -0.09273
