16
	Energy:      14.1828962
N         -1.92537       -1.93452       -0.09502
C         -0.76197       -1.23474       -0.00307
C          0.53914       -1.97502        0.01729
H          0.55873       -2.66407        0.88735
H          1.40477       -1.28313        0.09497
H          0.64253       -2.56640       -0.91640
C         -0.79447        0.16612        0.07128
C         -3.13356       -1.31261       -0.11747
C         -3.20873        0.07959       -0.04557
H         -4.03897       -1.90007       -0.19135
C         -2.02886        0.83516        0.05016
H          0.13052        0.72515        0.14452
H         -4.17830        0.56144       -0.06453
C         -2.08249        2.31617        0.12786
O         -0.94591        3.03453        0.21957
O         -3.15618        2.89793        0.10948
