13
	Energy:      14.5837326
N         -2.46462        1.12244       -0.00000
C         -3.61869        1.83942        0.00000
C         -1.24997        1.73189       -0.00001
C         -3.57887        3.23532       -0.00000
H         -4.57065        1.32544        0.00001
C         -2.33925        3.89890       -0.00001
H         -4.50797        3.79157        0.00000
C         -1.16052        3.12691       -0.00001
H         -0.34952        1.13209       -0.00001
F          0.06455        3.71058       -0.00002
C         -2.28833        5.38577       -0.00001
O         -3.32151        6.03715       -0.00001
O         -1.10658        6.03288       -0.00001
