17
	Energy:      31.1126029
N         -0.58977       -2.08405       -0.00146
C         -1.70676       -1.32642        0.00690
C          0.64912       -1.53512       -0.01363
C          0.83036       -0.12743       -0.01817
C         -1.61111        0.05721        0.00319
C         -0.35285        0.69790       -0.00931
C         -0.37190        2.20662       -0.01204
H         -2.67845       -1.80221        0.01654
H         -2.52968        0.63064        0.01022
H          1.48225       -2.21391       -0.01978
O         -1.44297        2.79483       -0.00420
O          0.74820        2.94513       -0.02246
C          2.23110        0.43889       -0.03207
C          3.35836       -0.29302       -0.03950
H          2.39466        1.49615       -0.03690
H          3.37727       -1.37148       -0.03612
H          4.31813        0.21468       -0.04944
