14
	Energy:      17.9583086
N         -0.65233       -2.14461       -0.10056
C         -1.77529       -1.38947       -0.01226
C          0.58189       -1.58066       -0.13709
C          0.73287       -0.18900       -0.08405
C         -1.68414        0.00072        0.04357
C         -0.42484        0.63085        0.00867
C         -0.36959        2.12524        0.07090
H         -2.74449       -1.86944        0.01482
H         -2.59547        0.58141        0.11383
H          1.45365       -2.21818       -0.20776
O         -1.40384        2.77044        0.15018
O          0.80161        2.78718        0.04162
S          2.40625        0.46708       -0.13827
H          2.51781        0.44421        1.26458
