25
	Energy:      51.0224254
N         -0.82345       -1.98574        0.28082
C         -1.88588       -1.22797        0.60776
C          0.39157       -1.44806        0.02599
C          0.62003       -0.04020        0.08888
C         -1.75936        0.14620        0.69299
C         -0.52505        0.79241        0.44261
C         -0.56384        2.30276        0.58027
H         -2.84063       -1.69779        0.80398
H         -2.64386        0.71095        0.95958
H          1.17201       -2.14281       -0.22589
O         -1.61401        2.84815        0.88611
O          0.50089        3.08962        0.38383
C          2.06420        0.48672       -0.22353
C          3.08157       -0.64393       -0.57102
H          3.20624       -1.35545        0.27454
H          4.08955       -0.22401       -0.78466
H          2.77258       -1.20670       -1.47908
C          2.05345        1.38561       -1.48817
H          1.71527        0.79097       -2.36468
H          3.07524        1.76533       -1.70679
H          1.39267        2.25692       -1.46729
C          2.67540        1.17226        1.02702
H          2.75835        0.43316        1.85350
H          2.11481        2.00920        1.45307
H          3.69634        1.55228        0.80495
