20
	Energy:      20.0405556
N         -2.99327       -1.34232        0.02127
C         -4.11778       -0.58392        0.01038
C         -1.75545       -0.78358        0.01908
C         -4.02626        0.80664       -0.00352
H         -5.08824       -1.06210        0.01250
C         -1.60420        0.61990        0.00522
H         -0.89389       -1.43586        0.02815
C         -2.76521        1.42889       -0.00629
H         -4.93618        1.39370       -0.01206
C         -2.68244        2.91870       -0.02122
O         -1.48998        3.54589       -0.02423
O         -3.70273        3.59017       -0.03093
O         -0.37457        1.20389        0.00275
C          0.83374        0.53427        0.01301
C          1.97117        1.54356        0.00591
H          0.91852       -0.10981       -0.88950
H          0.91337       -0.09123        0.92894
H          1.91355        2.17555       -0.90575
H          2.94549        1.01095        0.01411
H          1.90842        2.19405        0.90412
