15
	Energy:      25.2319203
N         -0.52569       -1.97730       -0.00000
C          0.64604       -1.29550       -0.00000
C          0.66834        0.11680        0.00000
C         -0.58565        0.81570        0.00000
C         -1.77073        0.04899        0.00000
C         -1.71858       -1.34041       -0.00000
H         -2.63457       -1.91619       -0.00000
H         -2.74305        0.52572        0.00000
H          1.56901       -1.86078       -0.00000
C         -0.74074        2.31220        0.00000
O         -1.85956        2.80332        0.00000
O          0.31366        3.14293       -0.00000
C          2.00546        0.78394        0.00000
O          3.02814        0.11546        0.00000
H          2.12177        1.85002        0.00000
