18
	Energy:      26.9001779
N         -5.60298       -1.08980       -0.44946
C         -5.24873       -2.39560       -0.41125
C         -3.90937       -2.75516       -0.30434
H         -6.01193       -3.16067       -0.46267
C         -4.68086       -0.09656       -0.38864
C         -3.30241       -0.39338       -0.28224
C         -2.90817       -1.76655       -0.23600
C         -1.48139       -2.21735       -0.11864
C         -2.27835        0.73312       -0.21575
O         -1.22087       -3.41071       -0.09476
O         -0.46630       -1.33816       -0.03372
H         -3.65577       -3.80752       -0.27418
H         -5.03264        0.92410       -0.42035
N         -2.87102        2.06716       -0.29890
H         -1.55581        0.62266       -1.05427
H         -1.73681        0.65657        0.75182
H         -3.26025        2.20600       -1.26034
H         -2.11223        2.77535       -0.17158
