12
	Energy:     -14.4059361
C          0.40968       -1.45974        0.16164
C          0.51785       -0.10550       -0.21818
C         -0.67452        0.68175       -0.26750
P          2.19551        0.60721       -0.64405
C          3.39996       -0.74945       -0.18682
H          3.30670       -1.59268       -0.90171
H          3.22552       -1.10721        0.84946
H          4.43270       -0.34883       -0.24643
C          2.44086        1.60652        0.91597
H          1.72561        2.45117        0.95485
H          3.47262        2.01403        0.92999
H          2.28647        0.96949        1.81131
