21
	Energy:      49.9198489
N         -0.69212       -2.08319       -0.40898
C         -1.85194       -1.40778       -0.24099
C          0.51290       -1.47147       -0.29650
C          0.60785       -0.09387        0.00075
C         -1.83383       -0.05350        0.07197
C         -0.61098        0.63357        0.21448
C         -0.67708        2.06459        0.65364
H         -2.79549       -1.92845       -0.33626
H         -2.77877        0.45274        0.22776
H          1.40355       -2.05574       -0.48065
O         -1.75024        2.64837        0.66931
O          0.39992        2.69195        1.15725
N          1.91661        0.51183        0.02581
C          3.05609       -0.20053        0.58228
H          2.76139       -1.14924        1.07645
H          3.54421        0.42975        1.35513
H          3.79185       -0.42444       -0.21929
C          2.18502        1.76798       -0.65600
H          1.27998        2.17953       -1.14857
H          2.93231        1.59879       -1.45975
H          2.60866        2.50913        0.05448
