8
	Energy:      31.1126029
C          0.64912       -1.53512       -0.01363
C          0.83036       -0.12743       -0.01817
C         -0.35285        0.69790       -0.00931
C          2.23110        0.43889       -0.03207
C          3.35836       -0.29302       -0.03950
H          2.39466        1.49615       -0.03690
H          3.37727       -1.37148       -0.03612
H          4.31813        0.21468       -0.04944
