14
	Energy:      15.0707324
N         -2.46458        1.12273        0.00000
C         -3.61871        1.83959        0.00000
C         -1.25001        1.73230        0.00000
C         -3.57904        3.23548       -0.00000
H         -4.57061        1.32550       -0.00000
C         -2.33949        3.89929        0.00000
H         -4.50827        3.79148       -0.00000
C         -1.16066        3.12731        0.00000
H         -0.34950        1.13258        0.00001
F          0.06448        3.71084        0.00001
C         -2.28871        5.38630        0.00000
O         -3.32491        6.03567       -0.00000
O         -1.10198        6.03139        0.00000
H         -1.05682        6.99815        0.00000
