16
	Energy:      40.9314582
N         -1.72784       -1.15291       -0.00000
C         -0.49514       -0.59708        0.00000
C         -2.84210       -0.39418       -0.00001
C         -0.31492        0.80175        0.00000
H          0.36637       -1.25287        0.00001
C         -2.74647        0.99127       -0.00001
H         -3.81425       -0.86930       -0.00001
C         -1.48932        1.65319       -0.00000
H         -3.67454        1.54842       -0.00001
N          1.03638        1.24974        0.00001
H          1.79788        0.55463        0.00002
H          1.33429        2.21349        0.00001
C         -1.57879        3.18263       -0.00000
O         -2.69374        3.68365       -0.00001
O         -0.54345        4.05198        0.00000
H          0.39171        3.88961        0.00001
