16
	Energy:      14.6058924
N         -1.01633       -0.61191       -0.00043
C          0.22004       -0.04356        0.00135
C         -2.14783        0.14110       -0.00231
C         -2.06441        1.53495       -0.00246
H         -3.11537       -0.34285       -0.00369
C         -0.80446        2.15566       -0.00065
H         -2.97426        2.12210       -0.00396
C          0.34718        1.35231        0.00127
H          1.33261        1.80200        0.00269
C         -0.68869        3.63515       -0.00077
N          1.37062       -0.86624        0.00327
H          1.27318       -1.89188        0.00332
H          2.31401       -0.45137        0.00463
O         -1.69337        4.33213       -0.00244
O          0.52898        4.22045        0.00098
H          0.62185        5.18377        0.00093
