17
	Energy:      17.3487389
N         -1.92397       -1.93435       -0.09481
C         -0.75743       -1.24197       -0.00307
C          0.53842       -1.99235        0.01657
H          0.55287       -2.68194        0.88631
H          1.41017       -1.30826        0.09415
H          0.63675       -2.58428       -0.91732
C         -0.77923        0.15988        0.07182
C         -3.12687       -1.30543       -0.11670
C         -3.19365        0.08640       -0.04445
H         -4.03589       -1.88733       -0.19049
C         -2.01162        0.84353        0.05152
H          0.15733        0.68966        0.14406
H         -4.16329        0.56803       -0.06347
C         -2.09646        2.33682        0.12843
O         -0.99760        3.12191        0.22209
H         -0.09453        2.78641        0.24597
O         -3.19234        2.87597        0.10662
