6
	Energy:       0.8850777
C          0.69801        1.79605        0.00000
C         -0.49289        2.69334        0.00000
C          0.52526        0.47614        0.00000
N          2.00353        2.34682        0.00000
H          2.13499        3.36873        0.00000
H          2.83260        1.73395        0.00000
