7
	Energy:       0.8917197
C         -1.09737       -2.18852       -0.00000
C         -1.10699       -0.85683        0.00000
N         -2.32028       -2.89461       -0.00000
C          0.19693       -2.94291       -0.00000
H          1.07099       -2.25566        0.00000
H          0.25049       -3.58478       -0.90408
H          0.25049       -3.58478        0.90408
