6
	Energy:       0.6625054
N          0.35005       -1.69645        0.00000
C          1.44174       -1.02530        0.00000
C          1.39301        0.46498        0.00000
N          2.68839       -1.69654        0.00000
H          2.72609       -2.72642        0.00000
H          3.56783       -1.15976        0.00000
