16
	Energy:      19.4017394
N         -3.27606       -2.18389       -0.00000
C         -4.43615       -1.48401       -0.00000
C         -2.06923       -1.56300       -0.00000
C         -4.41567       -0.09148        0.00000
H         -5.38114       -2.01079       -0.00000
C         -1.98270       -0.15922        0.00000
H         -1.17110       -2.16677       -0.00000
C         -3.18890        0.60171        0.00000
H         -5.35787        0.44260        0.00000
C         -3.22049        2.09889        0.00000
O         -4.29198        2.68600        0.00000
O         -2.08766        2.82528        0.00000
C         -0.61064        0.47018        0.00000
H          0.19118       -0.29980        0.00000
H         -0.46904        1.08940        0.91017
H         -0.46904        1.08940       -0.91017
