23
	Energy:      20.7745862
N         -2.90440       -1.35129        0.06878
C         -4.04828       -0.62281        0.04242
C         -1.68153       -0.76077        0.05209
C         -3.99297        0.76899       -0.00306
H         -5.00596       -1.12587        0.05683
C         -1.56690        0.64550        0.00626
H         -0.80334       -1.39012        0.07462
C         -2.74855        1.42356       -0.02180
H         -4.91785        1.33187       -0.02351
C         -2.70451        2.91431       -0.07054
O         -1.52873        3.57200       -0.08953
O         -3.74189        3.55868       -0.09390
O         -0.35296        1.26118       -0.01127
C          0.87278        0.62428        0.01239
C          1.98497        1.67087       -0.01955
H          0.96713       -0.03917       -0.87575
H          0.96307        0.02062        0.94259
C          3.36286        1.01579        0.00511
H          1.88617        2.34118        0.86194
H          1.89022        2.28177       -0.94364
H          3.48836        0.41508        0.93114
H          4.14828        1.80030       -0.01895
H          3.49243        0.35550       -0.87883
