14
	Energy:      17.5602108
N         -1.39373       -1.53627        0.00774
C         -2.61598       -0.94735        0.00827
C         -0.25090       -0.80298        0.01290
C         -2.72622        0.44303        0.01421
H         -3.50741       -1.56036        0.00406
C         -0.30410        0.59763        0.01898
H          0.70470       -1.31307        0.01226
C         -1.56847        1.24409        0.01969
H         -3.71239        0.89036        0.01451
C         -1.71899        2.73282        0.02600
O         -0.64371        3.54354        0.03140
O         -2.83268        3.23463        0.02633
C          0.94154        1.32700        0.02430
N          1.94356        1.90639        0.02855
