13
	Energy:      13.4032011
N         -0.60384       -2.09394       -0.00000
C         -1.76232       -1.38252       -0.00000
C          0.60794       -1.47762        0.00000
C          0.68716       -0.08268       -0.00000
C         -1.72932        0.01420        0.00000
C         -0.49189        0.67978       -0.00000
C         -0.42841        2.16217       -0.00000
H         -2.71168       -1.90127       -0.00000
H         -2.65958        0.56845       -0.00000
H          1.51264       -2.07083       -0.00000
H          1.65893        0.39478        0.00000
O         -1.45412        2.82511       -0.00000
O          0.76296        2.79216       -0.00000
